A51 MACRO ASSEMBLER  MAXANDMIN                                                            08/20/2018 15:49:52 PAGE     1


MACRO ASSEMBLER A51 V8.02b
OBJECT MODULE PLACED IN maxandmin.OBJ
ASSEMBLER INVOKED BY: C:\Keil_v5\C51\BIN\A51.EXE maxandmin.asm SET(SMALL) DEBUG EP

LOC  OBJ            LINE     SOURCE

  0005                 1     count equ 05h
  0050                 2     min equ 50h
  0051                 3     max equ 51h
0100                   4     org 0100h
0100 10110703          5             elements : db 10h,11h,7h,3h,16h
0104 16                      
0000                   6     org 0000h
0000 900100            7     mov dptr,#elements
0003 E4                8     clr a
0004 93                9     movc a,@a+dptr
0005 F550             10     mov min,a
0007 F551             11     mov max,a
0009 7805             12     mov r0,#count
000B 7905             13     mov r1,#count
000D 18               14     dec r0
000E                  15     mini:
000E A3               16     inc dptr
000F E4               17     clr a
0010 93               18     movc a,@a+dptr
0011 F9               19     mov r1,a
0012 9550             20     subb a,min
0014 5002             21     jnc skip
0016 8950             22     mov min,r1
0018 D8F4             23      skip:djnz r0,mini
001A                  24      maxi:
001A A3               25      inc dptr
001B E4               26     clr a
001C 93               27     movc a,@a+dptr
001D F9               28     mov r1,a
001E 9551             29     subb a,max
0020 4002             30     jc skip1
0022 8951             31     mov max,r1
0024 D9F4             32      skip1:djnz r1,maxi
                      33      
                      34     end
                                     
                             
                                     
                                                                                                                       
A51 MACRO ASSEMBLER  MAXANDMIN                                                            08/20/2018 15:49:52 PAGE     2

SYMBOL TABLE LISTING
------ ----- -------


N A M E             T Y P E  V A L U E   ATTRIBUTES

COUNT. . . . . . .  N NUMB   0005H   A   
ELEMENTS . . . . .  C ADDR   0100H   A   
MAX. . . . . . . .  N NUMB   0051H   A   
MAXI . . . . . . .  C ADDR   001AH   A   
MIN. . . . . . . .  N NUMB   0050H   A   
MINI . . . . . . .  C ADDR   000EH   A   
SKIP . . . . . . .  C ADDR   0018H   A   
SKIP1. . . . . . .  C ADDR   0024H   A   


REGISTER BANK(S) USED: 0 


ASSEMBLY COMPLETE.  0 WARNING(S), 0 ERROR(S)
